/*--------------------------------*- C++ -*----------------------------------*\
  =========                 |
  \\      /  F ield         | OpenFOAM: The Open Source CFD Toolbox
   \\    /   O peration     | Website:  https://openfoam.org
    \\  /    A nd           | Version:  8
     \\/     M anipulation  |
\*---------------------------------------------------------------------------*/
FoamFile
{
    version     2.0;
    format      ascii;
    class       volVectorField;
    object      U;
}
// * * * * * * * * * * * * * * * * * * * * * * * * * * * * * * * * * * * * * //

dimensions      [0 1 -1 0 0 0 0];

internalField   uniform (0.01 0 0);

boundaryField
{
    left
    {
        type            fixedValue;
        value           uniform (0.01 0 0);
    }

    right
    {
        type            zeroGradient;
    }

    down
    {
        type            fixedValue;
        value           uniform (0 0 0);
    }

    up
    {
        type            fixedValue;
        value           uniform (0 0 0);
    }

    front
    {
        type            fixedValue;
        value           uniform (0 0 0);
    }

    back
    {
        type            fixedValue;
        value           uniform (0 0 0);
    }

    defaultFaces
    {
        type            empty;
    }
}

// ************************************************************************* //
